@<TRIPOS>MOLECULE
*****
 92 96 0 0 0
SMALL
GASTEIGER

@<TRIPOS>ATOM
      1 O           0.7052   -1.8788    0.5668 O.3     1  UNL1       -0.3905
      2 C           1.0979   -1.1257    1.7216 C.3     1  UNL1        0.0686
      3 C           0.3547    0.2508    1.5416 C.3     1  UNL1        0.0258
      4 C           2.6383   -1.0271    1.8145 C.3     1  UNL1       -0.0142
      5 N           0.3234    1.3128    2.5918 N.3     1  UNL1       -0.2868
      6 C           3.5158   -2.2998    1.9388 C.3     1  UNL1        0.0419
      7 C          -0.5673    2.4118    2.1175 C.3     1  UNL1        0.0125
      8 C           1.6464    1.9511    2.8377 C.3     1  UNL1        0.1002
      9 C           3.5956   -3.0499    0.6173 C.2     1  UNL1        0.2170
     10 C           3.0793   -3.1881    3.1088 C.3     1  UNL1       -0.0165
     11 C          -0.0547    3.2306    0.8977 C.3     1  UNL1        0.0121
     12 C           2.2363    2.7231    1.6273 C.3     1  UNL1        0.0234
     13 C           1.6439    2.7772    4.1506 C.2     1  UNL1        0.2319
     14 N           4.8165   -2.9614   -0.0174 N.am    1  UNL1       -0.3057
     15 O           2.6192   -3.6209    0.1366 O.2     1  UNL1       -0.2755
     16 C           3.9934   -4.3687    3.3513 C.ar    1  UNL1       -0.0466
     17 N           1.3575    3.6517    0.8886 N.3     1  UNL1       -0.2950
     18 N           1.0348    2.1265    5.2145 N.am    1  UNL1       -0.3092
     19 O           2.2443    3.8418    4.2632 O.2     1  UNL1       -0.2740
     20 C           5.0267   -3.6245   -1.2863 C.3     1  UNL1        0.0748
     21 C           5.1799   -4.2310    4.0829 C.ar    1  UNL1       -0.0586
     22 C           3.6513   -5.6222    2.8361 C.ar    1  UNL1       -0.0586
     23 C           1.6360    5.0474    1.2533 C.3     1  UNL1        0.0256
     24 C           1.0420    2.6089    6.6074 C.3     1  UNL1        0.0262
     25 C           5.3041   -5.1542   -1.1681 C.3     1  UNL1        0.0816
     26 C           6.2411   -3.1292   -2.0239 C.ar    1  UNL1       -0.0215
     27 C           6.0072   -5.3439    4.2981 C.ar    1  UNL1       -0.0615
     28 C           4.4720   -6.7320    3.0518 C.ar    1  UNL1       -0.0615
     29 C           0.8615    6.0762    0.4714 C.ar    1  UNL1       -0.0153
     30 C           0.3392    3.9684    6.7258 C.3     1  UNL1       -0.0442
     31 C           0.2945    1.5987    7.4974 C.3     1  UNL1       -0.0442
     32 C           2.4859    2.7137    7.1332 C.3     1  UNL1       -0.0442
     33 O           5.8202   -5.4882    0.1274 O.3     1  UNL1       -0.3893
     34 C           6.3653   -5.5173   -2.2269 C.3     1  UNL1        0.0008
     35 C           6.6022   -1.8143   -2.2861 C.ar    1  UNL1       -0.0565
     36 C           6.9547   -4.1890   -2.5916 C.ar    1  UNL1       -0.0398
     37 C           5.6521   -6.5882    3.7863 C.ar    1  UNL1       -0.0617
     38 C           1.2153    6.4675   -0.8277 C.ar    1  UNL1       -0.0545
     39 C          -0.2750    6.6534    1.0194 C.ar    1  UNL1        0.0320
     40 C           7.6773   -1.5721   -3.1447 C.ar    1  UNL1       -0.0614
     41 C           8.0216   -3.9582   -3.4481 C.ar    1  UNL1       -0.0582
     42 C           0.4157    7.3850   -1.5093 C.ar    1  UNL1       -0.0433
     43 N          -1.0779    7.5348    0.3765 N.ar    1  UNL1       -0.2629
     44 C           8.3755   -2.6381   -3.7315 C.ar    1  UNL1       -0.0615
     45 C          -0.7121    7.8693   -0.8752 C.ar    1  UNL1        0.0276
     46 H           1.2373   -2.6963    0.4856 H       1  UNL1        0.2098
     47 H           0.6877   -1.6352    2.5996 H       1  UNL1        0.0606
     48 H           0.6777    0.6602    0.5766 H       1  UNL1        0.0452
     49 H          -0.6972   -0.0298    1.3708 H       1  UNL1        0.0452
     50 H           2.8774   -0.4900    2.7281 H       1  UNL1        0.0298
     51 H           3.0014   -0.4386    0.9636 H       1  UNL1        0.0298
     52 H           4.5283   -1.9342    2.1649 H       1  UNL1        0.0398
     53 H          -1.5615    2.0120    1.8801 H       1  UNL1        0.0439
     54 H          -0.7422    3.1109    2.9519 H       1  UNL1        0.0439
     55 H           2.3661    1.1899    3.1060 H       1  UNL1        0.0571
     56 H           2.0534   -3.5524    2.9599 H       1  UNL1        0.0320
     57 H           3.0493   -2.5905    4.0270 H       1  UNL1        0.0320
     58 H          -0.1935    2.6135    0.0017 H       1  UNL1        0.0439
     59 H          -0.7420    4.0665    0.7419 H       1  UNL1        0.0439
     60 H           2.5551    1.9735    0.8908 H       1  UNL1        0.0447
     61 H           3.1702    3.2156    1.9267 H       1  UNL1        0.0447
     62 H           5.6311   -2.9499    0.5879 H       1  UNL1        0.1494
     63 H           0.4079    1.3712    4.9505 H       1  UNL1        0.1492
     64 H           4.1563   -3.4612   -1.9330 H       1  UNL1        0.0574
     65 H           5.4706   -3.2704    4.4977 H       1  UNL1        0.0620
     66 H           2.7380   -5.7471    2.2515 H       1  UNL1        0.0620
     67 H           2.7001    5.2506    1.0623 H       1  UNL1        0.0476
     68 H           1.4855    5.2215    2.3249 H       1  UNL1        0.0476
     69 H           4.3796   -5.7247   -1.3115 H       1  UNL1        0.0618
     70 H           6.9292   -5.2294    4.8624 H       1  UNL1        0.0618
     71 H           4.1932   -7.7000    2.6547 H       1  UNL1        0.0618
     72 H           0.3311    4.3190    7.7643 H       1  UNL1        0.0250
     73 H          -0.7004    3.9044    6.3848 H       1  UNL1        0.0250
     74 H           0.8317    4.7414    6.1278 H       1  UNL1        0.0250
     75 H           0.2891    1.9227    8.5452 H       1  UNL1        0.0250
     76 H           0.7629    0.6083    7.4581 H       1  UNL1        0.0250
     77 H          -0.7477    1.4816    7.1799 H       1  UNL1        0.0250
     78 H           2.5039    3.0301    8.1824 H       1  UNL1        0.0250
     79 H           3.0817    3.4367    6.5677 H       1  UNL1        0.0250
     80 H           2.9991    1.7464    7.0661 H       1  UNL1        0.0250
     81 H           5.5173   -6.3914    0.3305 H       1  UNL1        0.2099
     82 H           5.9028   -5.9653   -3.1114 H       1  UNL1        0.0339
     83 H           7.1344   -6.1848   -1.8233 H       1  UNL1        0.0339
     84 H           6.0409   -0.9869   -1.8627 H       1  UNL1        0.0621
     85 H           6.3023   -7.4537    3.9613 H       1  UNL1        0.0618
     86 H           2.0989    6.0560   -1.3049 H       1  UNL1        0.0622
     87 H          -0.6034    6.3956    2.0218 H       1  UNL1        0.0833
     88 H           7.9595   -0.5499   -3.3844 H       1  UNL1        0.0618
     89 H           8.5540   -4.7812   -3.9150 H       1  UNL1        0.0620
     90 H           0.6672    7.6994   -2.5176 H       1  UNL1        0.0633
     91 H           9.1907   -2.4332   -4.4220 H       1  UNL1        0.0618
     92 H          -1.3809    8.5660   -1.3781 H       1  UNL1        0.0829
@<TRIPOS>BOND
     1    30    24    1
     2    24    31    1
     3    24    32    1
     4    24    18    1
     5    18    13   am
     6    13    19    2
     7     8    12    1
     8    12    17    1
     9    17    23    1
    10    23    29    1
    11    29    39   ar
    12    39    43   ar
    13    43    45   ar
    14    45    42   ar
    15    42    38   ar
    16    29    38   ar
    17    17    11    1
    18    11     7    1
    19     7     5    1
    20     8     5    1
    21     5     3    1
    22     2     4    1
    23     4     6    1
    24     6    10    1
    25    10    16    1
    26    16    21   ar
    27    21    27   ar
    28    27    37   ar
    29    37    28   ar
    30    28    22   ar
    31    16    22   ar
    32     6     9    1
    33     9    15    2
    34     9    14   am
    35    14    20    1
    36    20    25    1
    37    25    33    1
    38    25    34    1
    39    34    36    1
    40    36    41   ar
    41    41    44   ar
    42    44    40   ar
    43    40    35   ar
    44    35    26   ar
    45    20    26    1
    46    36    26   ar
    47     2     1    1
    48     2     3    1
    49     8    13    1
    50     1    46    1
    51     2    47    1
    52     3    48    1
    53     3    49    1
    54     4    50    1
    55     4    51    1
    56     6    52    1
    57     7    53    1
    58     7    54    1
    59     8    55    1
    60    10    56    1
    61    10    57    1
    62    11    58    1
    63    11    59    1
    64    12    60    1
    65    12    61    1
    66    14    62    1
    67    18    63    1
    68    20    64    1
    69    21    65    1
    70    22    66    1
    71    23    67    1
    72    23    68    1
    73    25    69    1
    74    27    70    1
    75    28    71    1
    76    30    72    1
    77    30    73    1
    78    30    74    1
    79    31    75    1
    80    31    76    1
    81    31    77    1
    82    32    78    1
    83    32    79    1
    84    32    80    1
    85    33    81    1
    86    34    82    1
    87    34    83    1
    88    35    84    1
    89    37    85    1
    90    38    86    1
    91    39    87    1
    92    40    88    1
    93    41    89    1
    94    42    90    1
    95    44    91    1
    96    45    92    1
