REMARK  Name = 
REMARK  17 active torsions:
REMARK  status: ('A' for Active; 'I' for Inactive)
REMARK    1  A    between atoms: O_1  and  C_2
REMARK    2  A    between atoms: C_2  and  C_3
REMARK    3  A    between atoms: C_2  and  C_4
REMARK    4  A    between atoms: C_3  and  N_5
REMARK    5  A    between atoms: C_4  and  C_6
REMARK    6  A    between atoms: C_6  and  C_9
REMARK    7  A    between atoms: C_6  and  C_10
REMARK    8  A    between atoms: C_8  and  C_13
REMARK    9  A    between atoms: C_10  and  C_16
REMARK   10  A    between atoms: N_14  and  C_20
REMARK   11  A    between atoms: N_17  and  C_23
REMARK   12  A    between atoms: N_18  and  C_24
REMARK   13  A    between atoms: C_23  and  C_29
REMARK   14  A    between atoms: C_24  and  C_30
REMARK   15  A    between atoms: C_24  and  C_31
REMARK   16  A    between atoms: C_24  and  C_32
REMARK   17  A    between atoms: C_25  and  O_33
REMARK                            x       y       z     vdW  Elec       q    Type
REMARK                         _______ _______ _______ _____ _____    ______ ____
ROOT
ATOM      1  C   UNL     1       2.607  -0.509   0.003  0.00  0.00    +0.000 C 
ENDROOT
BRANCH   1   2
ATOM      2  O   UNL     1       2.744   0.712   0.728  0.00  0.00    +0.000 OA
ATOM      3  H   UNL     1       2.011   1.285   0.427  0.00  0.00    +0.000 HD
ENDBRANCH   1   2
BRANCH   1   4
ATOM      4  C   UNL     1       1.107  -0.862  -0.125  0.00  0.00    +0.000 C 
BRANCH   4   5
ATOM      5  N   UNL     1       0.234   0.163  -0.768  0.00  0.00    +0.000 NA
ATOM      6  C   UNL     1      -1.181  -0.290  -0.661  0.00  0.00    +0.000 C 
ATOM      7  C   UNL     1       0.557   0.378  -2.213  0.00  0.00    +0.000 C 
ATOM      8  C   UNL     1      -1.518  -1.524  -1.536  0.00  0.00    +0.000 C 
ATOM      9  C   UNL     1       0.053  -0.735  -3.191  0.00  0.00    +0.000 C 
ATOM     10  N   UNL     1      -1.297  -1.323  -2.980  0.00  0.00    +0.000 NA
BRANCH   7  11
ATOM     11  C   UNL     1       0.123   1.801  -2.710  0.00  0.00    +0.000 C 
ATOM     12  N   UNL     1       0.986   2.326  -3.665  0.00  0.00    +0.000 N 
ATOM     13  O   UNL     1      -0.911   2.374  -2.359  0.00  0.00    +0.000 OA
ATOM     14  H   UNL     1       1.934   1.967  -3.625  0.00  0.00    +0.000 HD
BRANCH  12  15
ATOM     15  C   UNL     1       0.859   3.612  -4.385  0.00  0.00    +0.000 C 
ATOM     16  C   UNL     1       1.366   4.780  -3.528  0.00  0.00    +0.000 C 
ATOM     17  C   UNL     1       1.750   3.500  -5.638  0.00  0.00    +0.000 C 
ATOM     18  C   UNL     1      -0.578   3.906  -4.848  0.00  0.00    +0.000 C 
ENDBRANCH  12  15
ENDBRANCH   7  11
BRANCH  10  19
ATOM     19  C   UNL     1      -2.342  -0.496  -3.618  0.00  0.00    +0.000 C 
BRANCH  19  20
ATOM     20  C   UNL     1      -3.739  -1.060  -3.525  0.00  0.00    +0.000 A 
ATOM     21  C   UNL     1      -4.235  -1.992  -4.441  0.00  0.00    +0.000 A 
ATOM     22  C   UNL     1      -4.594  -0.662  -2.499  0.00  0.00    +0.000 A 
ATOM     23  C   UNL     1      -5.538  -2.471  -4.300  0.00  0.00    +0.000 A 
ATOM     24  N   UNL     1      -5.854  -1.124  -2.326  0.00  0.00    +0.000 NA
ATOM     25  C   UNL     1      -6.296  -2.017  -3.234  0.00  0.00    +0.000 A 
ENDBRANCH  19  20
ENDBRANCH  10  19
ENDBRANCH   4   5
ENDBRANCH   1   4
BRANCH   1  26
ATOM     26  C   UNL     1       3.352  -1.642   0.739  0.00  0.00    +0.000 C 
BRANCH  26  27
ATOM     27  C   UNL     1       4.858  -1.411   0.967  0.00  0.00    +0.000 C 
BRANCH  27  28
ATOM     28  C   UNL     1       5.608  -1.136  -0.351  0.00  0.00    +0.000 C 
ATOM     29  N   UNL     1       6.018  -2.227  -1.074  0.00  0.00    +0.000 N 
ATOM     30  O   UNL     1       5.802   0.009  -0.757  0.00  0.00    +0.000 OA
ATOM     31  H   UNL     1       5.530  -3.102  -0.942  0.00  0.00    +0.000 HD
BRANCH  29  32
ATOM     32  C   UNL     1       6.663  -2.093  -2.371  0.00  0.00    +0.000 C 
ATOM     33  C   UNL     1       5.637  -2.147  -3.550  0.00  0.00    +0.000 C 
ATOM     34  C   UNL     1       7.545  -3.279  -2.672  0.00  0.00    +0.000 A 
ATOM     35  C   UNL     1       6.291  -2.969  -4.680  0.00  0.00    +0.000 C 
ATOM     36  C   UNL     1       8.563  -3.805  -1.888  0.00  0.00    +0.000 A 
ATOM     37  C   UNL     1       7.272  -3.818  -3.933  0.00  0.00    +0.000 A 
ATOM     38  C   UNL     1       9.254  -4.928  -2.352  0.00  0.00    +0.000 A 
ATOM     39  C   UNL     1       7.935  -4.945  -4.393  0.00  0.00    +0.000 A 
ATOM     40  C   UNL     1       8.923  -5.510  -3.584  0.00  0.00    +0.000 A 
BRANCH  33  41
ATOM     41  O   UNL     1       4.409  -2.788  -3.142  0.00  0.00    +0.000 OA
ATOM     42  H   UNL     1       3.909  -2.993  -3.951  0.00  0.00    +0.000 HD
ENDBRANCH  33  41
ENDBRANCH  29  32
ENDBRANCH  27  28
BRANCH  27  43
ATOM     43  C   UNL     1       5.520  -2.596   1.713  0.00  0.00    +0.000 C 
BRANCH  43  44
ATOM     44  C   UNL     1       5.056  -2.853   3.130  0.00  0.00    +0.000 A 
ATOM     45  C   UNL     1       4.004  -3.747   3.389  0.00  0.00    +0.000 A 
ATOM     46  C   UNL     1       5.704  -2.247   4.214  0.00  0.00    +0.000 A 
ATOM     47  C   UNL     1       3.614  -4.029   4.699  0.00  0.00    +0.000 A 
ATOM     48  C   UNL     1       5.318  -2.541   5.525  0.00  0.00    +0.000 A 
ATOM     49  C   UNL     1       4.275  -3.431   5.767  0.00  0.00    +0.000 A 
ENDBRANCH  43  44
ENDBRANCH  27  43
ENDBRANCH  26  27
ENDBRANCH   1  26
TORSDOF 14
